ref_ligand_clean.pdb
 OpenBabel08212616223D

 53 55  0  0  1  0  0  0  0  0999 V2000
   17.8250   17.7980   17.2940 N   0  0  0  0  0  0  0  0  0  0  0  0
   14.7350   18.8580   18.9190 C   0  0  0  0  0  0  0  0  0  0  0  0
   20.8130   19.3850   14.9600 O   0  0  0  0  0  0  0  0  0  0  0  0
   15.5780   17.8660   18.2030 C   0  0  0  0  0  0  0  0  0  0  0  0
   19.7510   21.3330   14.6230 N   0  0  0  0  0  0  0  0  0  0  0  0
   23.6350   24.8380   16.0900 O   0  0  0  0  0  0  0  0  0  0  0  0
   23.1940   23.4980   15.8030 S   0  0  0  0  0  0  0  0  0  0  0  0
   16.7140   18.5150   17.3950 C   0  0  0  0  0  0  0  0  0  0  0  0
   16.4270   19.6920   16.8590 N   0  0  0  0  0  0  0  0  0  0  0  0
   23.7440   22.8560   14.6370 O   0  0  0  0  0  0  0  0  0  0  0  0
   18.7860   18.3470   16.5470 C   0  0  0  0  0  0  0  0  0  0  0  0
   17.2310   21.3920   15.5080 O   0  0  0  0  0  0  0  0  0  0  0  0
   18.6540   19.5870   15.9150 C   0  0  0  0  0  0  0  0  0  0  0  0
   19.8260   20.0920   15.1270 C   0  0  0  0  0  0  0  0  0  0  0  0
   20.8270   21.9100   13.8320 C   0  0  2  0  0  0  0  0  0  0  0  0
   21.0520   23.3800   14.2110 C   0  0  0  0  0  0  0  0  0  0  0  0
   21.4230   23.5150   15.6490 C   0  0  0  0  0  0  0  0  0  0  0  0
   23.5000   22.4870   17.2020 C   0  0  0  0  0  0  0  0  0  0  0  0
   20.5000   21.8700   12.3320 C   0  0  0  0  0  0  0  0  0  0  0  0
   20.8690   20.6190   11.5990 C   0  0  0  0  0  0  0  0  0  0  0  0
   21.6420   21.8740   11.3640 C   0  0  0  0  0  0  0  0  0  0  0  0
   17.4090   20.1980   16.1270 C   0  0  0  0  0  0  0  0  0  0  0  0
   15.9400   21.8870   15.2900 C   0  0  0  0  0  0  0  0  0  0  0  0
   15.6830   23.2050   15.6310 C   0  0  0  0  0  0  0  0  0  0  0  0
   14.4340   23.7460   15.3710 C   0  0  0  0  0  0  0  0  0  0  0  0
   13.4500   22.9790   14.7800 C   0  0  0  0  0  0  0  0  0  0  0  0
   13.7080   21.6620   14.4550 C   0  0  0  0  0  0  0  0  0  0  0  0
   14.9510   21.1050   14.7050 C   0  0  0  0  0  0  0  0  0  0  0  0
   16.0800   16.9710   19.0670 F   0  0  0  0  0  0  0  0  0  0  0  0
   14.8130   17.0980   17.3930 F   0  0  0  0  0  0  0  0  0  0  0  0
   15.3522   19.4576   19.5550 H   0  0  0  0  0  0  0  0  0  0  0  0
   14.0054   18.3453   19.5103 H   0  0  0  0  0  0  0  0  0  0  0  0
   14.2404   19.4855   18.2073 H   0  0  0  0  0  0  0  0  0  0  0  0
   18.9433   21.8695   14.7936 H   0  0  0  0  0  0  0  0  0  0  0  0
   19.6713   17.8296   16.4302 H   0  0  0  0  0  0  0  0  0  0  0  0
   21.7023   21.3287   14.0341 H   0  0  0  0  0  0  0  0  0  0  0  0
   20.1516   23.9290   14.0297 H   0  0  0  0  0  0  0  0  0  0  0  0
   21.8542   23.7644   13.6164 H   0  0  0  0  0  0  0  0  0  0  0  0
   21.0398   24.4377   16.0319 H   0  0  0  0  0  0  0  0  0  0  0  0
   21.0071   22.7005   16.2045 H   0  0  0  0  0  0  0  0  0  0  0  0
   24.5546   22.4206   17.3703 H   0  0  0  0  0  0  0  0  0  0  0  0
   23.1043   21.5082   17.0281 H   0  0  0  0  0  0  0  0  0  0  0  0
   23.0279   22.9151   18.0615 H   0  0  0  0  0  0  0  0  0  0  0  0
   19.6125   22.4563   12.4480 H   0  0  0  0  0  0  0  0  0  0  0  0
   20.2245   20.2370   10.8351 H   0  0  0  0  0  0  0  0  0  0  0  0
   21.1197   19.6197   11.8878 H   0  0  0  0  0  0  0  0  0  0  0  0
   22.6466   21.9584   11.7224 H   0  0  0  0  0  0  0  0  0  0  0  0
   21.9007   22.4527   10.5020 H   0  0  0  0  0  0  0  0  0  0  0  0
   16.4162   23.7795   16.0753 H   0  0  0  0  0  0  0  0  0  0  0  0
   14.2383   24.7280   15.6206 H   0  0  0  0  0  0  0  0  0  0  0  0
   12.5239   23.3889   14.5816 H   0  0  0  0  0  0  0  0  0  0  0  0
   12.9680   21.0877   14.0220 H   0  0  0  0  0  0  0  0  0  0  0  0
   15.1408   20.1207   14.4598 H   0  0  0  0  0  0  0  0  0  0  0  0
  1  8  2  0  0  0  0
  1 11  1  0  0  0  0
  2  4  1  0  0  0  0
  2 31  1  0  0  0  0
  2 32  1  0  0  0  0
  2 33  1  0  0  0  0
  3 14  2  0  0  0  0
  4  8  1  0  0  0  0
  4 29  1  0  0  0  0
  4 30  1  0  0  0  0
  5 14  1  0  0  0  0
  5 15  1  0  0  0  0
  5 34  1  0  0  0  0
  6  7  2  0  0  0  0
  7 10  2  0  0  0  0
  7 17  1  0  0  0  0
  7 18  1  0  0  0  0
  8  9  1  0  0  0  0
  9 22  2  0  0  0  0
 11 13  2  0  0  0  0
 11 35  1  0  0  0  0
 12 22  1  0  0  0  0
 12 23  1  0  0  0  0
 13 22  1  0  0  0  0
 13 14  1  0  0  0  0
 15 19  1  0  0  0  0
 15 16  1  0  0  0  0
 15 36  1  1  0  0  0
 16 17  1  0  0  0  0
 16 37  1  0  0  0  0
 16 38  1  0  0  0  0
 17 39  1  0  0  0  0
 17 40  1  0  0  0  0
 18 41  1  0  0  0  0
 18 42  1  0  0  0  0
 18 43  1  0  0  0  0
 19 20  1  0  0  0  0
 19 21  1  0  0  0  0
 19 44  1  0  0  0  0
 20 21  1  0  0  0  0
 20 45  1  0  0  0  0
 20 46  1  0  0  0  0
 21 47  1  0  0  0  0
 21 48  1  0  0  0  0
 23 24  2  0  0  0  0
 23 28  1  0  0  0  0
 24 25  1  0  0  0  0
 24 49  1  0  0  0  0
 25 26  2  0  0  0  0
 25 50  1  0  0  0  0
 26 27  1  0  0  0  0
 26 51  1  0  0  0  0
 27 28  2  0  0  0  0
 27 52  1  0  0  0  0
 28 53  1  0  0  0  0
M  END
>  <ANISOU>
    1  N  AX1L A1002     2976   3202   4368    987    491    814       N  
    2  C  AX1L A1002     2691   2652   3533    705    235    576       C  
    3  O  AX1L A1002     3229   3849   4961   1010    693    800       O  
    4  C1 AX1L A1002     3124   3044   4163    863    363    673       C  
    5  N1 AX1L A1002     2293   2696   3594    740    572    520       N  
    6  O1 AX1L A1002     4086   5952   5784    184    359    689       O  
    7  S1 AX1L A1002     4666   6337   6449    421    426    758       S  
    8  C2 AX1L A1002     2438   2498   3584    869    413    664       C  
    9  N2 AX1L A1002     2395   2378   3367    751    384    506       N  
   10  O2 AX1L A1002     4821   6395   6763    596    590    791       O  
   11  C3 AX1L A1002     3027   3380   4533   1003    551    811       C  
   12  O3 AX1L A1002     2420   2419   3317    643    429    362       O  
   13  C4 AX1L A1002     2652   2943   3985    871    524    646       C  
   14  C5 AX1L A1002     2295   2746   3763    877    598    657       C  
   15  C6 AX1L A1002     2308   2850   3713    722    647    519       C  
   16  C7 AX1L A1002     3341   4058   4651    518    548    458       C  
   17  C8 AX1L A1002     3538   4646   4959    424    414    572       C  
   18  C9 AX1L A1002     3737   5821   5761    493    323    997       C  
   19  C10AX1L A1002     2970   3138   4217    769    784    383       C  
   20  C11AX1L A1002     2788   2820   4158    942    951    429       C  
   21  C12AX1L A1002     3336   3591   4732    825    925    411       C  
   22  C13AX1L A1002     2386   2475   3448    753    439    502       C  
   23  C14AX1L A1002     2651   2379   3295    577    398    221       C  
   24  C15AX1L A1002     2366   2129   2877    440    331    145       C  
   25  C16AX1L A1002     2762   2277   3060    401    317     31       C  
   26  C17AX1L A1002     2767   2052   2982    473    346     -8       C  
   27  C18AX1L A1002     2590   1826   2905    575    408     45       C  
   28  C19AX1L A1002     2681   2113   3213    641    446    160       C  
   29  F  AX1L A1002     3225   3339   4445    942    355    866       F  
   30  F1 AX1L A1002     4416   3986   5302    869    443    553       F  

$$$$
