
     RDKit          3D

 53 55  0  0  0  0  0  0  0  0999 V2000
   -4.5871   -3.6605    2.4108 C   0  0  0  0  0  0  0  0  0  0  0  0
   -4.2036   -4.1113    1.0107 C   0  0  0  0  0  0  0  0  0  0  0  0
   -4.1489   -5.4798    1.0189 F   0  0  0  0  0  0  0  0  0  0  0  0
   -5.2469   -3.8085    0.1764 F   0  0  0  0  0  0  0  0  0  0  0  0
   -2.8896   -3.4551    0.5858 C   0  0  0  0  0  0  0  0  0  0  0  0
   -1.7379   -4.1424    0.7471 N   0  0  0  0  0  0  0  0  0  0  0  0
   -0.5924   -3.5243    0.3743 C   0  0  0  0  0  0  0  0  0  0  0  0
   -0.5308   -2.2443   -0.1362 C   0  0  0  0  0  0  0  0  0  0  0  0
    0.7903   -1.6841   -0.4950 C   0  0  0  0  0  0  0  0  0  0  0  0
    1.8043   -2.3235   -0.2286 O   0  0  0  0  0  0  0  0  0  0  0  0
    0.8378   -0.4522   -1.1116 N   0  0  0  0  0  0  0  0  0  0  0  0
    2.1017    0.2330   -1.3570 C   0  0  2  0  0  0  0  0  0  0  0  0
    2.5068    0.9850   -0.0808 C   0  0  0  0  0  0  0  0  0  0  0  0
    4.0155    1.1649    0.0434 C   0  0  0  0  0  0  0  0  0  0  0  0
    4.4245    2.1534    1.4727 S   0  0  0  0  0  0  0  0  0  0  0  0
    6.2003    2.1290    1.4773 C   0  0  0  0  0  0  0  0  0  0  0  0
    4.0046    3.5154    1.2040 O   0  0  0  0  0  0  0  0  0  0  0  0
    3.9724    1.4530    2.6587 O   0  0  0  0  0  0  0  0  0  0  0  0
    1.9153    1.0924   -2.5914 C   0  0  0  0  0  0  0  0  0  0  0  0
    3.1139    1.5025   -3.4173 C   0  0  0  0  0  0  0  0  0  0  0  0
    2.3099    2.5494   -2.7038 C   0  0  0  0  0  0  0  0  0  0  0  0
   -1.7529   -1.6114   -0.2226 C   0  0  0  0  0  0  0  0  0  0  0  0
   -1.8059   -0.3223   -0.7356 O   0  0  0  0  0  0  0  0  0  0  0  0
   -2.7454    0.5093   -0.1750 C   0  0  0  0  0  0  0  0  0  0  0  0
   -3.7775    0.9805   -0.9850 C   0  0  0  0  0  0  0  0  0  0  0  0
   -4.7159    1.8676   -0.4583 C   0  0  0  0  0  0  0  0  0  0  0  0
   -4.6085    2.2918    0.8672 C   0  0  0  0  0  0  0  0  0  0  0  0
   -3.5607    1.8339    1.6678 C   0  0  0  0  0  0  0  0  0  0  0  0
   -2.6207    0.9453    1.1459 C   0  0  0  0  0  0  0  0  0  0  0  0
   -2.9304   -2.1901    0.1179 N   0  0  0  0  0  0  0  0  0  0  0  0
   -4.7360   -2.5765    2.4551 H   0  0  0  0  0  0  0  0  0  0  0  0
   -5.5261   -4.1360    2.7128 H   0  0  0  0  0  0  0  0  0  0  0  0
   -3.8228   -3.9415    3.1428 H   0  0  0  0  0  0  0  0  0  0  0  0
    0.3060   -4.1241    0.5085 H   0  0  0  0  0  0  0  0  0  0  0  0
   -0.0111    0.0946   -1.2040 H   0  0  0  0  0  0  0  0  0  0  0  0
    2.8486   -0.5383   -1.5821 H   0  0  0  0  0  0  0  0  0  0  0  0
    2.1739    0.4239    0.8031 H   0  0  0  0  0  0  0  0  0  0  0  0
    1.9868    1.9484   -0.0170 H   0  0  0  0  0  0  0  0  0  0  0  0
    4.4436    1.6776   -0.8201 H   0  0  0  0  0  0  0  0  0  0  0  0
    4.5094    0.1957    0.1647 H   0  0  0  0  0  0  0  0  0  0  0  0
    6.5469    2.7240    2.3248 H   0  0  0  0  0  0  0  0  0  0  0  0
    6.5387    1.0966    1.5819 H   0  0  0  0  0  0  0  0  0  0  0  0
    6.5613    2.5629    0.5431 H   0  0  0  0  0  0  0  0  0  0  0  0
    1.0610    0.7674   -3.1819 H   0  0  0  0  0  0  0  0  0  0  0  0
    4.1093    1.2772   -3.0562 H   0  0  0  0  0  0  0  0  0  0  0  0
    3.0251    1.4453   -4.4976 H   0  0  0  0  0  0  0  0  0  0  0  0
    2.7745    3.0681   -1.8748 H   0  0  0  0  0  0  0  0  0  0  0  0
    1.6743    3.1956   -3.3018 H   0  0  0  0  0  0  0  0  0  0  0  0
   -3.8596    0.6503   -2.0164 H   0  0  0  0  0  0  0  0  0  0  0  0
   -5.5310    2.2289   -1.0802 H   0  0  0  0  0  0  0  0  0  0  0  0
   -5.3406    2.9842    1.2759 H   0  0  0  0  0  0  0  0  0  0  0  0
   -3.4749    2.1743    2.6967 H   0  0  0  0  0  0  0  0  0  0  0  0
   -1.7995    0.6046    1.7695 H   0  0  0  0  0  0  0  0  0  0  0  0
  1  2  1  0
  2  3  1  0
  2  4  1  0
  2  5  1  0
  5  6  2  0
  6  7  1  0
  7  8  2  0
  8  9  1  0
  9 10  2  0
  9 11  1  0
 11 12  1  0
 12 13  1  0
 13 14  1  0
 14 15  1  0
 15 16  1  0
 15 17  2  0
 15 18  2  0
 12 19  1  0
 19 20  1  0
 20 21  1  0
  8 22  1  0
 22 23  1  0
 23 24  1  0
 24 25  2  0
 25 26  1  0
 26 27  2  0
 27 28  1  0
 28 29  2  0
 22 30  2  0
 30  5  1  0
 21 19  1  0
 29 24  1  0
  1 31  1  0
  1 32  1  0
  1 33  1  0
  7 34  1  0
 11 35  1  0
 12 36  1  6
 13 37  1  0
 13 38  1  0
 14 39  1  0
 14 40  1  0
 16 41  1  0
 16 42  1  0
 16 43  1  0
 19 44  1  0
 20 45  1  0
 20 46  1  0
 21 47  1  0
 21 48  1  0
 25 49  1  0
 26 50  1  0
 27 51  1  0
 28 52  1  0
 29 53  1  0
M  END
$$$$
