
     RDKit          3D

 43 46  0  0  0  0  0  0  0  0999 V2000
    2.7891   -1.0326   -1.7694 O   0  0  0  0  0  0  0  0  0  0  0  0
    2.8308   -1.0633   -0.5430 C   0  0  0  0  0  0  0  0  0  0  0  0
    1.8408   -1.6750    0.1962 N   0  0  0  0  0  0  0  0  0  0  0  0
    0.6465   -2.2042   -0.4221 C   0  0  0  0  0  0  0  0  0  0  0  0
   -0.4930   -1.2244   -0.3066 C   0  0  0  0  0  0  0  0  0  0  0  0
   -1.4154   -1.3191    0.7461 C   0  0  0  0  0  0  0  0  0  0  0  0
   -2.4543   -0.3926    0.8627 C   0  0  0  0  0  0  0  0  0  0  0  0
   -2.5826    0.6305   -0.0790 C   0  0  0  0  0  0  0  0  0  0  0  0
   -3.5604    1.5959    0.0004 O   0  0  0  0  0  0  0  0  0  0  0  0
   -4.8501    1.1708    0.2251 C   0  0  0  0  0  0  0  0  0  0  0  0
   -5.4435    0.1414   -0.5102 C   0  0  0  0  0  0  0  0  0  0  0  0
   -6.7684   -0.2161   -0.2563 C   0  0  0  0  0  0  0  0  0  0  0  0
   -7.5011    0.4637    0.7177 C   0  0  0  0  0  0  0  0  0  0  0  0
   -6.9135    1.5069    1.4343 C   0  0  0  0  0  0  0  0  0  0  0  0
   -5.5891    1.8663    1.1825 C   0  0  0  0  0  0  0  0  0  0  0  0
   -1.6539    0.7532   -1.1109 C   0  0  0  0  0  0  0  0  0  0  0  0
   -0.6164   -0.1732   -1.2277 C   0  0  0  0  0  0  0  0  0  0  0  0
    3.8898   -0.4659    0.2344 C   0  0  0  0  0  0  0  0  0  0  0  0
    4.2205   -0.6330    1.5696 C   0  0  0  0  0  0  0  0  0  0  0  0
    5.3062    0.1136    1.9343 N   0  0  0  0  0  0  0  0  0  0  0  0
    5.6715    0.7398    0.8386 C   0  0  0  0  0  0  0  0  0  0  0  0
    6.7397    1.6528    0.6069 C   0  0  0  0  0  0  0  0  0  0  0  0
    6.9204    2.1776   -0.6195 C   0  0  0  0  0  0  0  0  0  0  0  0
    6.0436    1.8333   -1.7248 C   0  0  0  0  0  0  0  0  0  0  0  0
    5.0340    0.9720   -1.5138 C   0  0  0  0  0  0  0  0  0  0  0  0
    4.8447    0.4223   -0.2409 N   0  0  0  0  0  0  0  0  0  0  0  0
    1.7995   -1.5069    1.1897 H   0  0  0  0  0  0  0  0  0  0  0  0
    0.8258   -2.4586   -1.4727 H   0  0  0  0  0  0  0  0  0  0  0  0
    0.3991   -3.1367    0.0972 H   0  0  0  0  0  0  0  0  0  0  0  0
   -1.3303   -2.1122    1.4856 H   0  0  0  0  0  0  0  0  0  0  0  0
   -3.1528   -0.4706    1.6914 H   0  0  0  0  0  0  0  0  0  0  0  0
   -4.8854   -0.3792   -1.2832 H   0  0  0  0  0  0  0  0  0  0  0  0
   -7.2315   -1.0197   -0.8231 H   0  0  0  0  0  0  0  0  0  0  0  0
   -8.5340    0.1860    0.9121 H   0  0  0  0  0  0  0  0  0  0  0  0
   -7.4883    2.0431    2.1848 H   0  0  0  0  0  0  0  0  0  0  0  0
   -5.1322    2.6837    1.7332 H   0  0  0  0  0  0  0  0  0  0  0  0
   -1.7383    1.5677   -1.8252 H   0  0  0  0  0  0  0  0  0  0  0  0
    0.1039   -0.0688   -2.0380 H   0  0  0  0  0  0  0  0  0  0  0  0
    3.7343   -1.2684    2.2987 H   0  0  0  0  0  0  0  0  0  0  0  0
    7.3908    1.9064    1.4355 H   0  0  0  0  0  0  0  0  0  0  0  0
    7.7308    2.8746   -0.8106 H   0  0  0  0  0  0  0  0  0  0  0  0
    6.2214    2.2783   -2.6980 H   0  0  0  0  0  0  0  0  0  0  0  0
    4.3510    0.6821   -2.3020 H   0  0  0  0  0  0  0  0  0  0  0  0
  1  2  2  0
  2  3  1  0
  3  4  1  0
  4  5  1  0
  5  6  2  0
  6  7  1  0
  7  8  2  0
  8  9  1  0
  9 10  1  0
 10 11  2  0
 11 12  1  0
 12 13  2  0
 13 14  1  0
 14 15  2  0
  8 16  1  0
 16 17  2  0
  2 18  1  0
 18 19  2  0
 19 20  1  0
 20 21  2  0
 21 22  1  0
 22 23  2  0
 23 24  1  0
 24 25  2  0
 25 26  1  0
 17  5  1  0
 26 18  1  0
 15 10  1  0
 26 21  1  0
  3 27  1  0
  4 28  1  0
  4 29  1  0
  6 30  1  0
  7 31  1  0
 11 32  1  0
 12 33  1  0
 13 34  1  0
 14 35  1  0
 15 36  1  0
 16 37  1  0
 17 38  1  0
 19 39  1  0
 22 40  1  0
 23 41  1  0
 24 42  1  0
 25 43  1  0
M  END
$$$$
