/root/tomdok/data/9fza/ref_ligand.tmp.pdb
 OpenBabel08302619573D

 26 29  0  0  0  0  0  0  0  0999 V2000
  -12.0420  -12.4220   21.5700 C   0  0  0  0  0  0  0  0  0  0  0  0
  -10.8290  -13.1500   21.5260 C   0  0  0  0  0  0  0  0  0  0  0  0
   -9.6990  -12.6040   22.0630 C   0  0  0  0  0  0  0  0  0  0  0  0
  -13.6350   -9.2380   22.4240 C   0  0  0  0  0  0  0  0  0  0  0  0
  -15.3490   -7.5020   22.2300 C   0  0  0  0  0  0  0  0  0  0  0  0
  -14.7750   -6.2590   21.5970 C   0  0  0  0  0  0  0  0  0  0  0  0
  -15.6260   -5.2750   21.1170 C   0  0  0  0  0  0  0  0  0  0  0  0
  -15.1330   -4.0650   20.6590 C   0  0  0  0  0  0  0  0  0  0  0  0
  -13.7640   -3.8290   20.6690 C   0  0  0  0  0  0  0  0  0  0  0  0
  -12.9800   -1.5390   20.9280 C   0  0  0  0  0  0  0  0  0  0  0  0
  -12.7540   -0.3180   20.3100 C   0  0  0  0  0  0  0  0  0  0  0  0
  -12.3440    0.7630   21.0750 C   0  0  0  0  0  0  0  0  0  0  0  0
  -12.1740    0.6310   22.4420 C   0  0  0  0  0  0  0  0  0  0  0  0
  -12.8950   -4.8090   21.1370 C   0  0  0  0  0  0  0  0  0  0  0  0
  -13.4040   -6.0150   21.5850 C   0  0  0  0  0  0  0  0  0  0  0  0
  -12.9350   -8.6000   23.2080 O   0  0  0  0  0  0  0  0  0  0  0  0
  -13.3070  -10.6270   22.0230 C   0  0  0  0  0  0  0  0  0  0  0  0
  -14.0230  -11.6010   21.3780 C   0  0  0  0  0  0  0  0  0  0  0  0
  -13.2560  -12.7060   21.0880 N   0  0  0  0  0  0  0  0  0  0  0  0
  -12.0270  -11.1610   22.1700 N   0  0  0  0  0  0  0  0  0  0  0  0
  -10.8820  -10.6350   22.7410 C   0  0  0  0  0  0  0  0  0  0  0  0
   -9.7300  -11.3340   22.6830 C   0  0  0  0  0  0  0  0  0  0  0  0
  -14.7200   -8.7480   21.8210 N   0  0  0  0  0  0  0  0  0  0  0  0
  -13.2970   -2.6320   20.1180 O   0  0  0  0  0  0  0  0  0  0  0  0
  -12.8260   -1.6730   22.3020 C   0  0  0  0  0  0  0  0  0  0  0  0
  -12.4170   -0.5800   23.0520 C   0  0  0  0  0  0  0  0  0  0  0  0
  1 20  1  0  0  0  0
  2  1  1  0  0  0  0
  2  3  2  0  0  0  0
  3 22  1  0  0  0  0
  4 16  2  0  0  0  0
  6  5  1  0  0  0  0
  7  6  2  0  0  0  0
  8  9  2  0  0  0  0
  8  7  1  0  0  0  0
  9 14  1  0  0  0  0
 10 25  1  0  0  0  0
 11 10  2  0  0  0  0
 11 12  1  0  0  0  0
 12 13  2  0  0  0  0
 13 26  1  0  0  0  0
 14 15  2  0  0  0  0
 15  6  1  0  0  0  0
 17 20  1  0  0  0  0
 17  4  1  0  0  0  0
 18 17  2  0  0  0  0
 19 18  1  0  0  0  0
 19  1  2  0  0  0  0
 20 21  1  0  0  0  0
 22 21  2  0  0  0  0
 23  5  1  0  0  0  0
 23  4  1  0  0  0  0
 24  9  1  0  0  0  0
 24 10  1  0  0  0  0
 25 26  2  0  0  0  0
M  END
$$$$
