33o_only.pdb
 OpenBabel08292611113D

 94 93  0  0  0  0  0  0  0  0999 V2000
   20.8525    4.1518   13.2867 O   0  0  0  0  0  0  0  0  0  0  0  0
   20.3780    3.7870   11.9972 C   0  0  0  0  0  0  0  0  0  0  0  0
   20.8637    4.7853   10.9534 C   0  0  0  0  0  0  0  0  0  0  0  0
   20.3744    4.3973    9.6696 O   0  0  0  0  0  0  0  0  0  0  0  0
   20.8038    5.3030    8.6531 C   0  0  0  0  0  0  0  0  0  0  0  0
   20.2574    4.8456    7.3051 C   0  0  0  0  0  0  0  0  0  0  0  0
   20.6878    5.7498    6.2875 O   0  0  0  0  0  0  0  0  0  0  0  0
   20.2010    5.3601    5.0033 C   0  0  0  0  0  0  0  0  0  0  0  0
   20.6844    6.3564    3.9548 C   0  0  0  0  0  0  0  0  0  0  0  0
   20.1968    5.9671    2.6706 O   0  0  0  0  0  0  0  0  0  0  0  0
   20.6140    6.8812    1.6563 C   0  0  0  0  0  0  0  0  0  0  0  0
   20.0705    6.4236    0.3071 C   0  0  0  0  0  0  0  0  0  0  0  0
   20.4718    7.3482   -0.7036 O   0  0  0  0  0  0  0  0  0  0  0  0
   19.9985    6.9517   -1.9909 C   0  0  0  0  0  0  0  0  0  0  0  0
   20.4337    7.9812   -3.0279 C   0  0  0  0  0  0  0  0  0  0  0  0
   19.9766    7.5784   -4.3190 O   0  0  0  0  0  0  0  0  0  0  0  0
   20.3432    8.5307   -5.3184 C   0  0  0  0  0  0  0  0  0  0  0  0
   19.8879    8.0331   -6.6857 C   0  0  0  0  0  0  0  0  0  0  0  0
   20.2376    8.9963   -7.6779 O   0  0  0  0  0  0  0  0  0  0  0  0
   19.8824    8.5523   -8.9924 C   0  0  0  0  0  0  0  0  0  0  0  0
   20.3391    9.5890  -10.0182 C   0  0  0  0  0  0  0  0  0  0  0  0
   21.7627    9.5217  -10.1572 O   0  0  0  0  0  0  0  0  0  0  0  0
   22.2520   10.5149  -11.0558 C   0  0  0  0  0  0  0  0  0  0  0  0
   23.7727   10.4311  -11.1128 C   0  0  0  0  0  0  0  0  0  0  0  0
   24.2699   11.4106  -12.0250 O   0  0  0  0  0  0  0  0  0  0  0  0
   25.6967   11.3996  -12.0663 C   0  0  0  0  0  0  0  0  0  0  0  0
   26.1825   12.4370  -13.0718 C   0  0  0  0  0  0  0  0  0  0  0  0
   27.6097   12.4363  -13.0985 O   0  0  0  0  0  0  0  0  0  0  0  0
   28.1132   13.3811  -14.0423 C   0  0  0  0  0  0  0  0  0  0  0  0
   29.6374   13.3526  -14.0205 C   0  0  0  0  0  0  0  0  0  0  0  0
   30.1441   14.2858  -14.9745 O   0  0  0  0  0  0  0  0  0  0  0  0
   31.5716   14.2903  -14.9900 C   0  0  0  0  0  0  0  0  0  0  0  0
   32.0622   15.2956  -16.0260 C   0  0  0  0  0  0  0  0  0  0  0  0
   33.4900   15.3042  -16.0433 O   0  0  0  0  0  0  0  0  0  0  0  0
   33.9917   16.2367  -17.0004 C   0  0  0  0  0  0  0  0  0  0  0  0
   35.5161   16.2055  -16.9884 C   0  0  0  0  0  0  0  0  0  0  0  0
   36.0154   17.1402  -17.9460 O   0  0  0  0  0  0  0  0  0  0  0  0
   37.4491   17.1415  -17.9754 C   0  0  0  0  0  0  0  0  0  0  0  0
   37.8971   18.1542  -19.0236 C   0  0  0  0  0  0  0  0  0  0  0  0
   37.3884   17.7781  -20.3027 O   0  0  0  0  0  0  0  0  0  0  0  0
   20.5143    3.4843   13.9086 H   0  0  0  0  0  0  0  0  0  0  0  0
   20.7349    2.7799   11.7564 H   0  0  0  0  0  0  0  0  0  0  0  0
   19.2833    3.7558   12.0144 H   0  0  0  0  0  0  0  0  0  0  0  0
   20.5054    5.7905   11.2056 H   0  0  0  0  0  0  0  0  0  0  0  0
   21.9599    4.8123   10.9470 H   0  0  0  0  0  0  0  0  0  0  0  0
   21.8994    5.3366    8.6175 H   0  0  0  0  0  0  0  0  0  0  0  0
   20.4450    6.3152    8.8751 H   0  0  0  0  0  0  0  0  0  0  0  0
   19.1618    4.8130    7.3408 H   0  0  0  0  0  0  0  0  0  0  0  0
   20.6150    3.8326    7.0844 H   0  0  0  0  0  0  0  0  0  0  0  0
   19.1048    5.3311    5.0095 H   0  0  0  0  0  0  0  0  0  0  0  0
   20.5608    4.3547    4.7538 H   0  0  0  0  0  0  0  0  0  0  0  0
   21.7806    6.3854    3.9475 H   0  0  0  0  0  0  0  0  0  0  0  0
   20.3248    7.3616    4.2054 H   0  0  0  0  0  0  0  0  0  0  0  0
   21.7090    6.9272    1.6184 H   0  0  0  0  0  0  0  0  0  0  0  0
   20.2446    7.8885    1.8828 H   0  0  0  0  0  0  0  0  0  0  0  0
   18.9763    6.3645    0.3483 H   0  0  0  0  0  0  0  0  0  0  0  0
   20.4510    5.4218    0.0744 H   0  0  0  0  0  0  0  0  0  0  0  0
   18.9046    6.8733   -1.9830 H   0  0  0  0  0  0  0  0  0  0  0  0
   20.4029    5.9666   -2.2526 H   0  0  0  0  0  0  0  0  0  0  0  0
   21.5269    8.0681   -3.0277 H   0  0  0  0  0  0  0  0  0  0  0  0
   20.0202    8.9639   -2.7710 H   0  0  0  0  0  0  0  0  0  0  0  0
   21.4302    8.6761   -5.3216 H   0  0  0  0  0  0  0  0  0  0  0  0
   19.8774    9.4993   -5.1004 H   0  0  0  0  0  0  0  0  0  0  0  0
   20.3667    7.0712   -6.9055 H   0  0  0  0  0  0  0  0  0  0  0  0
   18.8029    7.8746   -6.6842 H   0  0  0  0  0  0  0  0  0  0  0  0
   20.3638    7.5881   -9.1915 H   0  0  0  0  0  0  0  0  0  0  0  0
   18.7941    8.4396   -9.0422 H   0  0  0  0  0  0  0  0  0  0  0  0
   19.8815    9.3723  -10.9895 H   0  0  0  0  0  0  0  0  0  0  0  0
   20.0534   10.5950   -9.6907 H   0  0  0  0  0  0  0  0  0  0  0  0
   21.8299   10.3565  -12.0553 H   0  0  0  0  0  0  0  0  0  0  0  0
   21.9502   11.5139  -10.7186 H   0  0  0  0  0  0  0  0  0  0  0  0
   24.0785    9.4291  -11.4370 H   0  0  0  0  0  0  0  0  0  0  0  0
   24.1896   10.5998  -10.1125 H   0  0  0  0  0  0  0  0  0  0  0  0
   26.0583   10.4054  -12.3552 H   0  0  0  0  0  0  0  0  0  0  0  0
   26.1023   11.6273  -11.0732 H   0  0  0  0  0  0  0  0  0  0  0  0
   25.8124   13.4300  -12.7898 H   0  0  0  0  0  0  0  0  0  0  0  0
   25.7865   12.2021  -14.0672 H   0  0  0  0  0  0  0  0  0  0  0  0
   27.7569   14.3882  -13.7946 H   0  0  0  0  0  0  0  0  0  0  0  0
   27.7514   13.1362  -15.0481 H   0  0  0  0  0  0  0  0  0  0  0  0
   29.9981   13.6079  -13.0169 H   0  0  0  0  0  0  0  0  0  0  0  0
   29.9927   12.3424  -14.2565 H   0  0  0  0  0  0  0  0  0  0  0  0
   31.9577   14.5594  -13.9995 H   0  0  0  0  0  0  0  0  0  0  0  0
   31.9483   13.2902  -15.2359 H   0  0  0  0  0  0  0  0  0  0  0  0
   31.6765   15.0253  -17.0164 H   0  0  0  0  0  0  0  0  0  0  0  0
   31.6831   16.2950  -15.7812 H   0  0  0  0  0  0  0  0  0  0  0  0
   33.6239   15.9832  -18.0021 H   0  0  0  0  0  0  0  0  0  0  0  0
   33.6399   17.2474  -16.7611 H   0  0  0  0  0  0  0  0  0  0  0  0
   35.8865   16.4591  -15.9878 H   0  0  0  0  0  0  0  0  0  0  0  0
   35.8683   15.1956  -17.2305 H   0  0  0  0  0  0  0  0  0  0  0  0
   37.8419   17.4163  -16.9909 H   0  0  0  0  0  0  0  0  0  0  0  0
   37.7974   16.1399  -18.2507 H   0  0  0  0  0  0  0  0  0  0  0  0
   37.5088   19.1513  -18.7939 H   0  0  0  0  0  0  0  0  0  0  0  0
   38.9878   18.2003  -19.0842 H   0  0  0  0  0  0  0  0  0  0  0  0
   36.4443   17.5768  -20.1521 H   0  0  0  0  0  0  0  0  0  0  0  0
  1  2  1  0  0  0  0
  1 41  1  0  0  0  0
  2 42  1  0  0  0  0
  2 43  1  0  0  0  0
  3  4  1  0  0  0  0
  3  2  1  0  0  0  0
  3 44  1  0  0  0  0
  3 45  1  0  0  0  0
  5  4  1  0  0  0  0
  5  6  1  0  0  0  0
  5 46  1  0  0  0  0
  5 47  1  0  0  0  0
  6  7  1  0  0  0  0
  6 48  1  0  0  0  0
  6 49  1  0  0  0  0
  7  8  1  0  0  0  0
  8  9  1  0  0  0  0
  8 50  1  0  0  0  0
  8 51  1  0  0  0  0
  9 10  1  0  0  0  0
  9 52  1  0  0  0  0
  9 53  1  0  0  0  0
 10 11  1  0  0  0  0
 11 12  1  0  0  0  0
 11 54  1  0  0  0  0
 11 55  1  0  0  0  0
 12 13  1  0  0  0  0
 12 56  1  0  0  0  0
 12 57  1  0  0  0  0
 13 14  1  0  0  0  0
 14 15  1  0  0  0  0
 14 58  1  0  0  0  0
 14 59  1  0  0  0  0
 15 16  1  0  0  0  0
 15 60  1  0  0  0  0
 15 61  1  0  0  0  0
 16 17  1  0  0  0  0
 17 62  1  0  0  0  0
 17 63  1  0  0  0  0
 18 17  1  0  0  0  0
 18 64  1  0  0  0  0
 18 65  1  0  0  0  0
 19 18  1  0  0  0  0
 20 19  1  0  0  0  0
 20 66  1  0  0  0  0
 20 67  1  0  0  0  0
 21 20  1  0  0  0  0
 21 68  1  0  0  0  0
 21 69  1  0  0  0  0
 22 21  1  0  0  0  0
 23 22  1  0  0  0  0
 23 70  1  0  0  0  0
 23 71  1  0  0  0  0
 24 23  1  0  0  0  0
 24 25  1  0  0  0  0
 24 72  1  0  0  0  0
 24 73  1  0  0  0  0
 25 26  1  0  0  0  0
 26 27  1  0  0  0  0
 26 74  1  0  0  0  0
 26 75  1  0  0  0  0
 27 76  1  0  0  0  0
 27 77  1  0  0  0  0
 28 27  1  0  0  0  0
 28 29  1  0  0  0  0
 29 78  1  0  0  0  0
 29 79  1  0  0  0  0
 30 29  1  0  0  0  0
 30 80  1  0  0  0  0
 30 81  1  0  0  0  0
 31 30  1  0  0  0  0
 32 31  1  0  0  0  0
 32 82  1  0  0  0  0
 32 83  1  0  0  0  0
 33 32  1  0  0  0  0
 33 84  1  0  0  0  0
 33 85  1  0  0  0  0
 34 33  1  0  0  0  0
 35 34  1  0  0  0  0
 35 86  1  0  0  0  0
 35 87  1  0  0  0  0
 36 35  1  0  0  0  0
 36 88  1  0  0  0  0
 36 89  1  0  0  0  0
 37 36  1  0  0  0  0
 38 37  1  0  0  0  0
 38 90  1  0  0  0  0
 38 91  1  0  0  0  0
 39 38  1  0  0  0  0
 39 92  1  0  0  0  0
 39 93  1  0  0  0  0
 40 39  1  0  0  0  0
 40 94  1  0  0  0  0
M  END
$$$$
