
     RDKit          3D

 40 41  0  0  0  0  0  0  0  0999 V2000
    3.1159   -1.3763   -2.1762 C   0  0  0  0  0  0  0  0  0  0  0  0
    3.3111   -1.6801   -0.6875 C   0  0  1  0  0  0  0  0  0  0  0  0
    2.0535   -2.2001   -0.1150 N   0  0  0  0  0  0  0  0  0  0  0  0
    1.0189   -1.3150    0.1058 C   0  0  0  0  0  0  0  0  0  0  0  0
   -0.1986   -1.8373    0.1104 N   0  0  0  0  0  0  0  0  0  0  0  0
   -1.1945   -0.9949    0.3385 C   0  0  0  0  0  0  0  0  0  0  0  0
   -2.4607   -1.5626    0.3662 N   0  0  0  0  0  0  0  0  0  0  0  0
   -3.5427   -0.7489   -0.2311 C   0  0  2  0  0  0  0  0  0  0  0  0
   -4.3017   -0.0349    0.8880 C   0  0  0  0  0  0  0  0  0  0  0  0
   -4.5220   -1.5972   -1.0684 C   0  0  0  0  0  0  0  0  0  0  0  0
   -3.8599   -2.2531   -2.0523 F   0  0  0  0  0  0  0  0  0  0  0  0
   -5.1571   -2.5269   -0.3213 F   0  0  0  0  0  0  0  0  0  0  0  0
   -5.4628   -0.8267   -1.6593 F   0  0  0  0  0  0  0  0  0  0  0  0
   -1.0470    0.3059    0.5317 N   0  0  0  0  0  0  0  0  0  0  0  0
    0.2138    0.7449    0.5023 C   0  0  0  0  0  0  0  0  0  0  0  0
    0.4448    2.1964    0.7074 C   0  0  0  0  0  0  0  0  0  0  0  0
   -0.5634    3.0453    1.1799 C   0  0  0  0  0  0  0  0  0  0  0  0
   -0.2993    4.4033    1.3551 C   0  0  0  0  0  0  0  0  0  0  0  0
    0.9648    4.8906    1.0542 C   0  0  0  0  0  0  0  0  0  0  0  0
    1.9065    3.9915    0.5903 C   0  0  0  0  0  0  0  0  0  0  0  0
    3.4916    4.5086    0.1891 Cl  0  0  0  0  0  0  0  0  0  0  0  0
    1.6845    2.6756    0.4085 N   0  0  0  0  0  0  0  0  0  0  0  0
    1.2745   -0.0329    0.2878 N   0  0  0  0  0  0  0  0  0  0  0  0
    4.4744   -2.6796   -0.5162 C   0  0  0  0  0  0  0  0  0  0  0  0
    4.7201   -2.9499    0.7858 F   0  0  0  0  0  0  0  0  0  0  0  0
    4.2041   -3.8562   -1.1328 F   0  0  0  0  0  0  0  0  0  0  0  0
    5.6215   -2.1981   -1.0498 F   0  0  0  0  0  0  0  0  0  0  0  0
    2.8106   -2.2730   -2.7270 H   0  0  0  0  0  0  0  0  0  0  0  0
    4.0423   -1.0011   -2.6233 H   0  0  0  0  0  0  0  0  0  0  0  0
    2.3437   -0.6156   -2.3319 H   0  0  0  0  0  0  0  0  0  0  0  0
    3.6127   -0.7618   -0.1685 H   0  0  0  0  0  0  0  0  0  0  0  0
    1.6923   -3.0628   -0.5076 H   0  0  0  0  0  0  0  0  0  0  0  0
   -2.3537   -2.4934   -0.0350 H   0  0  0  0  0  0  0  0  0  0  0  0
   -3.1290    0.0026   -0.9166 H   0  0  0  0  0  0  0  0  0  0  0  0
   -5.1078    0.5840    0.4804 H   0  0  0  0  0  0  0  0  0  0  0  0
   -3.6392    0.6186    1.4649 H   0  0  0  0  0  0  0  0  0  0  0  0
   -4.7441   -0.7532    1.5873 H   0  0  0  0  0  0  0  0  0  0  0  0
   -1.5492    2.6543    1.4185 H   0  0  0  0  0  0  0  0  0  0  0  0
   -1.0736    5.0701    1.7249 H   0  0  0  0  0  0  0  0  0  0  0  0
    1.2048    5.9401    1.1795 H   0  0  0  0  0  0  0  0  0  0  0  0
  1  2  1  0
  2  3  1  0
  3  4  1  0
  4  5  2  0
  5  6  1  0
  6  7  1  0
  7  8  1  0
  8  9  1  0
  8 10  1  0
 10 11  1  0
 10 12  1  0
 10 13  1  0
  6 14  2  0
 14 15  1  0
 15 16  1  0
 16 17  2  0
 17 18  1  0
 18 19  2  0
 19 20  1  0
 20 21  1  0
 20 22  2  0
 15 23  2  0
  2 24  1  0
 24 25  1  0
 24 26  1  0
 24 27  1  0
 23  4  1  0
 22 16  1  0
  1 28  1  0
  1 29  1  0
  1 30  1  0
  2 31  1  1
  3 32  1  0
  7 33  1  0
  8 34  1  6
  9 35  1  0
  9 36  1  0
  9 37  1  0
 17 38  1  0
 18 39  1  0
 19 40  1  0
M  END
$$$$
