data/6vei/9UO.pdb
 OpenBabel08302612183D

 27 28  0  0  1  0  0  0  0  0999 V2000
   32.6070   22.8960   25.9320 C   0  0  0  0  0  0  0  0  0  0  0  0
   32.8140   22.1170   29.6350 C   0  0  0  0  0  0  0  0  0  0  0  0
   34.2310   23.9510   29.0470 C   0  0  0  0  0  0  0  0  0  0  0  0
   29.5110   21.6960   22.5120 C   0  0  2  0  0  0  0  0  0  0  0  0
   28.0340   22.0410   22.3630 C   0  0  0  0  0  0  0  0  0  0  0  0
   33.7900   23.0420   20.4980 C   0  0  0  0  0  0  0  0  0  0  0  0
   33.4010   24.2200   21.3860 C   0  0  2  0  0  0  0  0  0  0  0  0
   34.0350   25.4900   20.8200 C   0  0  0  0  0  0  0  0  0  0  0  0
   33.0450   23.3980   23.7430 C   0  0  0  0  0  0  0  0  0  0  0  0
   32.9980   22.9470   27.4030 C   0  0  0  0  0  0  0  0  0  0  0  0
   32.4430   22.0480   28.2980 C   0  0  0  0  0  0  0  0  0  0  0  0
   33.7280   23.0930   30.0110 C   0  0  0  0  0  0  0  0  0  0  0  0
   31.1310   22.2780   24.3090 C   0  0  0  0  0  0  0  0  0  0  0  0
   29.7970   20.3350   21.8980 C   0  0  0  0  0  0  0  0  0  0  0  0
   33.4900   25.7640   19.6010 F   0  0  0  0  0  0  0  0  0  0  0  0
   33.8110   26.5400   21.6610 F   0  0  0  0  0  0  0  0  0  0  0  0
   35.3790   25.2980   20.6780 F   0  0  0  0  0  0  0  0  0  0  0  0
   31.1380   20.1160   21.9950 F   0  0  0  0  0  0  0  0  0  0  0  0
   29.1280   19.3670   22.5890 F   0  0  0  0  0  0  0  0  0  0  0  0
   29.4080   20.3280   20.5900 F   0  0  0  0  0  0  0  0  0  0  0  0
   33.9030   23.9870   22.7290 N   0  0  0  0  0  0  0  0  0  0  0  0
   33.3930   23.4390   25.0170 N   0  0  0  0  0  0  0  0  0  0  0  0
   33.8620   23.8600   27.7890 N   0  0  0  0  0  0  0  0  0  0  0  0
   31.4740   22.3180   25.5800 N   0  0  0  0  0  0  0  0  0  0  0  0
   29.8890   21.6450   23.9110 N   0  0  0  0  0  0  0  0  0  0  0  0
   31.9140   22.8150   23.3890 N   0  0  0  0  0  0  0  0  0  0  0  0
   35.4060   25.2120   29.4970 Cl  0  0  0  0  0  0  0  0  0  0  0  0
  1 10  1  0  0  0  0
  2 12  1  0  0  0  0
  3 27  1  0  0  0  0
  3 12  2  0  0  0  0
  4  5  1  1  0  0  0
  4 25  1  0  0  0  0
  7  6  1  6  0  0  0
  7 21  1  0  0  0  0
  8  7  1  0  0  0  0
  8 16  1  0  0  0  0
  9 22  1  0  0  0  0
 10 23  2  0  0  0  0
 10 11  1  0  0  0  0
 11  2  2  0  0  0  0
 13 24  2  0  0  0  0
 14 18  1  0  0  0  0
 14  4  1  0  0  0  0
 14 19  1  0  0  0  0
 15  8  1  0  0  0  0
 17  8  1  0  0  0  0
 20 14  1  0  0  0  0
 21  9  1  0  0  0  0
 22  1  2  0  0  0  0
 23  3  1  0  0  0  0
 24  1  1  0  0  0  0
 25 13  1  0  0  0  0
 26  9  2  0  0  0  0
 26 13  1  0  0  0  0
M  END
$$$$
